version 2
run ARPTest-0-20210601-12:16:04-13080
attr configname ARPTest
attr datetime 20210601-12:16:04
attr experiment ARPTest
attr inifile omnetpp.ini
attr iterationvars ""
attr iterationvars2 $repetition=0
attr measurement ""
attr network ARPTest
attr processid 13080
attr repetition 0
attr replication #0
attr resultdir results
attr runnumber 0
attr seedset 0
param *.configurator.addStaticRoutes false
param *.micro_router*.energyStorageType "\"IdealEnergyStorage\""
param *.micro_router*.wlan[0].radio.bandwidth 2MHz
param *.micro_router*.wlan[0].radio.carrierFrequency 2GHz
param *.micro_router*.wlan[0].radio.energyConsumer.offPowerConsumption 0mW
param *.micro_router*.wlan[0].radio.energyConsumer.receiverBusyPowerConsumption 5mW
param *.micro_router*.wlan[0].radio.energyConsumer.receiverIdlePowerConsumption 2mW
param *.micro_router*.wlan[0].radio.energyConsumer.receiverReceivingPowerConsumption 10mW
param *.micro_router*.wlan[0].radio.energyConsumer.sleepPowerConsumption 1mW
param *.micro_router*.wlan[0].radio.energyConsumer.switchingPowerConsumption 1mW
param *.micro_router*.wlan[0].radio.energyConsumer.transmitterTransmittingPowerConsumption 100mW
param *.micro_router*.wlan[0].radio.energyConsumerType "\"StateBasedEnergyConsumer\""
param *.micro_router*.wlan[0].radio.receiver.energyDetection -85dBm
param *.micro_router*.wlan[0].radio.receiver.sensitivity -85dBm
param *.micro_router*.wlan[0].radio.receiver.snirThreshold 4dB
param *.micro_router*.wlan[0].radio.transmitter.communicationRange 250m
param *.micro_router*.wlan[0].radio.transmitter.headerBitLength 0b
param *.micro_router*.wlan[0].radio.transmitter.power 1.4mW
param *.micro_router*.wlan[0].radio.transmitter.preambleDuration 10us
param *.micro_router*.wlan[0].radio.typename "\"IdealWirelessNic\""
param *.micro_router*.wlan[0].radioType "\"APSKScalarRadio\""
param ARPTest.micro_router0.routingTable.routingFile "\"whost0.mrt\""
param ARPTest.micro_router1.routingTable.routingFile "\"whost1.mrt\""

vector 15  ARPTest.micro_router0.wlan[0].mac.ctn[0]  state:vector  ETV
attr interpolationmode  none
attr source  stateChanged
attr title  "contention state, vector"
vector 0  ARPTest.micro_router0.energyStorage  powerConsumption:vector  ETV
attr interpolationmode  sample-hold
attr source  powerConsumptionChanged
attr title  "Power consumption, vector"
vector 56  ARPTest.micro_router1.wlan[0].mac.ctn[0]  state:vector  ETV
attr interpolationmode  none
attr source  stateChanged
attr title  "contention state, vector"
vector 41  ARPTest.micro_router1.energyStorage  powerConsumption:vector  ETV
attr interpolationmode  sample-hold
attr source  powerConsumptionChanged
attr title  "Power consumption, vector"
vector 12  ARPTest.micro_router0.wlan[0].radio  radioMode:vector  ETV
attr interpolationmode  sample-hold
attr source  radioModeChanged
attr title  "Radio mode, vector"
vector 53  ARPTest.micro_router1.wlan[0].radio  radioMode:vector  ETV
attr interpolationmode  sample-hold
attr source  radioModeChanged
attr title  "Radio mode, vector"
vector 13  ARPTest.micro_router0.wlan[0].radio  receptionState:vector  ETV
attr interpolationmode  sample-hold
attr source  receptionStateChanged
attr title  "Radio reception state, vector"
vector 54  ARPTest.micro_router1.wlan[0].radio  receptionState:vector  ETV
attr interpolationmode  sample-hold
attr source  receptionStateChanged
attr title  "Radio reception state, vector"
vector 93  ARPTest.switch1.eth[2].mac  rxPkOk:vector(packetBytes)  ETV
attr interpolationmode  none
attr source  rxPkOk
attr title  "packets received OK, vector(packetBytes)"
vector 94  ARPTest.switch1.eth[2].mac  passedUpPk:vector(packetBytes)  ETV
attr interpolationmode  none
attr source  packetSentToUpper
attr title  "packets passed to higher layer, vector(packetBytes)"
vector 75  ARPTest.switch1.eth[0].mac  rxPkFromHL:vector(packetBytes)  ETV
attr interpolationmode  none
attr source  rxPkFromHL
attr title  "packet bytes from higher layer, vector(packetBytes)"
vector 86  ARPTest.switch1.eth[1].mac  rxPkFromHL:vector(packetBytes)  ETV
attr interpolationmode  none
attr source  rxPkFromHL
attr title  "packet bytes from higher layer, vector(packetBytes)"
vector 70  ARPTest.switch1.eth[0].mac  txPk:vector(packetBytes)  ETV
attr interpolationmode  none
attr source  txPk
attr title  "packets transmitted, vector(packetBytes)"
vector 81  ARPTest.switch1.eth[1].mac  txPk:vector(packetBytes)  ETV
attr interpolationmode  none
attr source  txPk
attr title  "packets transmitted, vector(packetBytes)"
vector 30  ARPTest.micro_router0.eth[1].mac  rxPkOk:vector(packetBytes)  ETV
attr interpolationmode  none
attr source  rxPkOk
attr title  "packets received OK, vector(packetBytes)"
vector 31  ARPTest.micro_router0.eth[1].mac  passedUpPk:vector(packetBytes)  ETV
attr interpolationmode  none
attr source  packetSentToUpper
attr title  "packets passed to higher layer, vector(packetBytes)"
vector 39  ARPTest.micro_router0.eth[1].encap  decapPk:vector(packetBytes)  ETV
attr interpolationmode  none
attr source  decapPk
attr title  "packets decapsulated, vector(packetBytes)"
vector 4  ARPTest.micro_router0.networkLayer.arp  sentReply:vector  ETV
attr title  "ARP replies sent, vector"
vector 38  ARPTest.micro_router0.eth[1].encap  encapPk:vector(packetBytes)  ETV
attr interpolationmode  none
attr source  encapPk
attr title  "packets encapsulated, vector(packetBytes)"
vector 34  ARPTest.micro_router0.eth[1].mac  rxPkFromHL:vector(packetBytes)  ETV
attr interpolationmode  none
attr source  rxPkFromHL
attr title  "packet bytes from higher layer, vector(packetBytes)"
vector 29  ARPTest.micro_router0.eth[1].mac  txPk:vector(packetBytes)  ETV
attr interpolationmode  none
attr source  txPk
attr title  "packets transmitted, vector(packetBytes)"
vector 71  ARPTest.switch1.eth[0].mac  rxPkOk:vector(packetBytes)  ETV
attr interpolationmode  none
attr source  rxPkOk
attr title  "packets received OK, vector(packetBytes)"
vector 72  ARPTest.switch1.eth[0].mac  passedUpPk:vector(packetBytes)  ETV
attr interpolationmode  none
attr source  packetSentToUpper
attr title  "packets passed to higher layer, vector(packetBytes)"
vector 97  ARPTest.switch1.eth[2].mac  rxPkFromHL:vector(packetBytes)  ETV
attr interpolationmode  none
attr source  rxPkFromHL
attr title  "packet bytes from higher layer, vector(packetBytes)"
vector 92  ARPTest.switch1.eth[2].mac  txPk:vector(packetBytes)  ETV
attr interpolationmode  none
attr source  txPk
attr title  "packets transmitted, vector(packetBytes)"
vector 3  ARPTest.micro_router0.networkLayer.arp  sentReq:vector  ETV
attr title  "ARP request sent, vector"
vector 26  ARPTest.micro_router0.eth[0].encap  encapPk:vector(packetBytes)  ETV
attr interpolationmode  none
attr source  encapPk
attr title  "packets encapsulated, vector(packetBytes)"
vector 22  ARPTest.micro_router0.eth[0].mac  rxPkFromHL:vector(packetBytes)  ETV
attr interpolationmode  none
attr source  rxPkFromHL
attr title  "packet bytes from higher layer, vector(packetBytes)"
vector 17  ARPTest.micro_router0.eth[0].mac  txPk:vector(packetBytes)  ETV
attr interpolationmode  none
attr source  txPk
attr title  "packets transmitted, vector(packetBytes)"
vector 10  ARPTest.micro_router0.wlan[0].mac  rcvdPkFromHL:vector(packetBytes)  ETV
attr interpolationmode  none
attr source  packetReceivedFromUpper
attr title  "packets received from higher layer, vector(packetBytes)"
vector 9  ARPTest.micro_router0.wlan[0].mac  sentDownPk:vector(packetBytes)  ETV
attr interpolationmode  none
attr source  packetSentToLower
attr title  "packets sent to lower layer, vector(packetBytes)"
vector 2  ARPTest.micro_router0.energyStorage  residualCapacity:vector  ETV
attr interpolationmode  linear
attr source  residualCapacityChanged
attr title  "Residual capacity, vector"
vector 14  ARPTest.micro_router0.wlan[0].radio  transmissionState:vector  ETV
attr interpolationmode  sample-hold
attr source  transmissionStateChanged
attr title  "Radio transmission state, vector"
vector 43  ARPTest.micro_router1.energyStorage  residualCapacity:vector  ETV
attr interpolationmode  linear
attr source  residualCapacityChanged
attr title  "Residual capacity, vector"
vector 52  ARPTest.micro_router1.wlan[0].mac  rcvdPkFromLL:vector(packetBytes)  ETV
attr interpolationmode  none
attr source  packetReceivedFromLower
attr title  "packets received from lower layer, vector(packetBytes)"
vector 49  ARPTest.micro_router1.wlan[0].mac  passedUpPk:vector(packetBytes)  ETV
attr interpolationmode  none
attr source  packetSentToUpper
attr title  "packets passed to higher layer, vector(packetBytes)"
vector 18  ARPTest.micro_router0.eth[0].mac  rxPkOk:vector(packetBytes)  ETV
attr interpolationmode  none
attr source  rxPkOk
attr title  "packets received OK, vector(packetBytes)"
vector 19  ARPTest.micro_router0.eth[0].mac  passedUpPk:vector(packetBytes)  ETV
attr interpolationmode  none
attr source  packetSentToUpper
attr title  "packets passed to higher layer, vector(packetBytes)"
vector 27  ARPTest.micro_router0.eth[0].encap  decapPk:vector(packetBytes)  ETV
attr interpolationmode  none
attr source  decapPk
attr title  "packets decapsulated, vector(packetBytes)"
0	0	0	0
2	515	0.922735295887	-0.001845470591774
2	518	0.922756555146	-0.001847596517674
2	595	1.012123393984	-0.00202633019535
2	598	1.012144653243	-0.00202845612125
3	504	0.92001088	1
4	451	0.86001088	1
9	514	0.922735295887	76
9	594	1.012123393984	76
10	512	0.922735295887	76
10	592	1.012123393984	76
12	0	0	0
12	0	0	2
12	515	0.922735295887	3
12	519	0.922756555146	2
12	595	1.012123393984	3
12	599	1.012144653243	2
13	0	0	1
13	515	0.922735295887	0
13	519	0.922756555146	1
13	595	1.012123393984	0
13	599	1.012144653243	1
14	515	0.922735295887	1
14	516	0.922735295887	2
14	518	0.922756555146	1
14	519	0.922756555146	0
14	595	1.012123393984	1
14	596	1.012123393984	2
14	598	1.012144653243	1
14	599	1.012144653243	0
15	0	0	0
15	0	0	0
15	0	0	0
15	0	0	0
15	512	0.922735295887	0
15	512	0.922735295887	2
15	513	0.922735295887	2
15	513	0.922735295887	3
15	515	0.922735295887	3
15	515	0.922735295887	3
15	518	0.922756555146	3
15	518	0.922756555146	0
15	519	0.922756555146	0
15	519	0.922756555146	0
15	592	1.012123393984	0
15	592	1.012123393984	2
15	593	1.012123393984	2
15	593	1.012123393984	3
15	595	1.012123393984	3
15	595	1.012123393984	3
15	598	1.012144653243	3
15	598	1.012144653243	0
15	599	1.012144653243	0
15	599	1.012144653243	0
17	508	0.92001664	64
17	558	0.97001088	64
18	552	0.97000512	0
18	583	1.01000512	0
19	552	0.97000512	0
19	583	1.01000512	0
22	507	0.92001088	64
22	557	0.97000512	64
26	506	0.92001088	28
26	556	0.97000512	20
27	553	0.97000512	28
27	584	1.01000512	20
29	455	0.86001664	64
29	588	1.01001088	64
30	447	0.86001088	64
30	502	0.92001088	64
31	447	0.86001088	64
31	502	0.92001088	64
34	454	0.86001088	64
34	587	1.01000512	64
38	453	0.86001088	28
38	586	1.01000512	20
39	449	0.86001088	28
39	503	0.92001088	20
41	0	0	0
43	517	0.922735692323	-0.001845471384646
43	520	0.922756951582	-0.001845683977236
43	597	1.01212379042	-0.002024417654912
43	600	1.012145049679	-0.002024630247502
49	521	0.922756951582	76
49	601	1.012145049679	76
52	521	0.922756951582	76
52	601	1.012145049679	76
53	0	0	0
53	0	0	2
54	0	0	1
54	517	0.922735692323	3
54	520	0.922756951582	1
54	597	1.01212379042	3
54	600	1.012145049679	1
56	0	0	0
56	0	0	0
56	0	0	0
56	0	0	0
56	517	0.922735692323	0
56	517	0.922735692323	0
56	520	0.922756951582	0
56	520	0.922756951582	0
56	597	1.01212379042	0
56	597	1.01212379042	0
56	600	1.012145049679	0
56	600	1.012145049679	0
70	438	0.85001088	64
70	495	0.91001088	64
71	463	0.87001664	64
71	611	1.02001088	64
72	463	0.87001664	64
72	611	1.02001088	64
75	435	0.85000512	64
75	493	0.91000512	64
81	439	0.85001088	64
86	436	0.85000512	64
92	467	0.8700224	64
92	615	1.02001664	64
93	433	0.85000512	0
93	491	0.91000512	0
94	433	0.85000512	0
94	491	0.91000512	0
97	465	0.87001664	64
97	613	1.02001088	64
